<?xml version='1.0' encoding='UTF-8'?>
<configuration xmlns:xsi="http://www.w3.org/2001/XMLSchema-instance" xsi:noNamespaceSchemaLocation="http://sumo.dlr.de/xsd/routes_file.xsd">
  <input>
    <net-file value="trento.net.xml"/>
    <route-files value="route/r0.xml, route/r1.xml, route/r2.xml, route/r3.xml, route/r4.xml, route/r5.xml, route/r6.xml"/>
    <additional-files value="map.poly.xml"/>
  </input>
  <time>
    <begin value="0"/>
    <end value="900.0"/>
    <step-length value="1"/>
    <delay value="500"/>
  </time>
</configuration>
